44

LA 3.07914572e-01 2.24378303e-01 9.24577197e-01
LA -2.24378303e-01 3.07914572e-01 -9.24577197e-01
LA 1.09629157e-01 6.98556689e-01 -7.07106781e-01
LA 5.88927532e-01 -8.08185846e-01 1.16533955e-10
LA -1.22800875e-01 9.55165662e-01 2.69403977e-01
LA -3.07914572e-01 -2.24378303e-01 -9.24577197e-01
LA -6.59880980e-01 -4.80857316e-01 -5.77350269e-01
LA 6.59880980e-01 4.80857316e-01 5.77350269e-01
LA -4.80857316e-01 6.59880980e-01 -5.77350269e-01
LA 8.08185846e-01 5.88927532e-01 -9.92142588e-11
LA 2.24378303e-01 -3.07914572e-01 9.24577197e-01
LA -4.80857316e-01 6.59880981e-01 5.77350269e-01
LA 4.80857316e-01 -6.59880980e-01 -5.77350269e-01
LA 4.09492000e-01 8.71629393e-01 2.69403978e-01
LA 2.24378303e-01 -3.07914572e-01 -9.24577197e-01
LA 1.09629157e-01 6.98556689e-01 7.07106781e-01
LA -1.09629157e-01 -6.98556689e-01 7.07106781e-01
LA -8.71629393e-01 4.09492000e-01 2.69403978e-01
LA 1.22800875e-01 -9.55165662e-01 2.69403978e-01
LA 3.07914572e-01 2.24378303e-01 -9.24577197e-01
LA -9.55165662e-01 -1.22800875e-01 2.69403978e-01
LA 1.22800876e-01 -9.55165662e-01 -2.69403978e-01
LA -6.98556689e-01 1.09629157e-01 7.07106781e-01
LA 9.55165662e-01 1.22800875e-01 -2.69403978e-01
LA -4.09491999e-01 -8.71629393e-01 -2.69403977e-01
LA 8.71629393e-01 -4.09492000e-01 2.69403978e-01
LA -6.98556689e-01 1.09629157e-01 -7.07106781e-01
LA 4.09491999e-01 8.71629393e-01 -2.69403978e-01
LA 9.55165662e-01 1.22800875e-01 2.69403978e-01
LA 6.98556689e-01 -1.09629157e-01 7.07106781e-01
LA 6.98556689e-01 -1.09629157e-01 -7.07106781e-01
LA -5.88927532e-01 8.08185846e-01 -9.00738281e-11
LA 6.59880980e-01 4.80857316e-01 -5.77350269e-01
LA 8.71629393e-01 -4.09492000e-01 -2.69403978e-01
LA -3.07914572e-01 -2.24378303e-01 9.24577197e-01
LA -8.71629393e-01 4.09491999e-01 -2.69403978e-01
LA -4.09492000e-01 -8.71629393e-01 2.69403978e-01
LA -6.59880980e-01 -4.80857316e-01 5.77350269e-01
LA -1.09629157e-01 -6.98556689e-01 -7.07106781e-01
LA -1.22800876e-01 9.55165662e-01 -2.69403978e-01
LA -8.08185846e-01 -5.88927532e-01 9.18201218e-11
LA -9.55165662e-01 -1.22800875e-01 -2.69403978e-01
LA 4.80857316e-01 -6.59880980e-01 5.77350269e-01
LA -2.24378303e-01 3.07914572e-01 9.24577197e-01
